<?xml version="1.0" encoding="UTF-8"?>

<!-- generated on 2025-06-27 12:45:23 by Eclipse SUMO netedit Version 1.23.1
<neteditConfiguration xmlns:xsi="http://www.w3.org/2001/XMLSchema-instance" xsi:noNamespaceSchemaLocation="http://sumo.dlr.de/xsd/neteditConfiguration.xsd">

    <input>
        <sumo-net-file value="D:\Programming\Faculta\SEM2\ISML\PROJECt\Code\nets\test.net.xml"/>
    </input>

    <output>
        <output-file value="D:\Programming\Faculta\SEM2\ISML\PROJECt\Code\nets\test.net.xml"/>
    </output>

    <processing>
        <geometry.min-radius.fix.railways value="false"/>
        <geometry.avoid-overlap value="false"/>
        <geometry.max-grade.fix value="false"/>
        <offset.disable-normalization value="true"/>
        <lefthand value="0"/>
    </processing>

    <junctions>
        <no-turnarounds value="true"/>
        <junctions.corner-detail value="5"/>
        <junctions.limit-turn-speed value="5.50"/>
        <rectangular-lane-cut value="0"/>
    </junctions>

    <pedestrian>
        <walkingareas value="0"/>
    </pedestrian>

</neteditConfiguration>
-->

<net version="1.20" junctionCornerDetail="5" limitTurnSpeed="5.50" avoidOverlap="0" xmlns:xsi="http://www.w3.org/2001/XMLSchema-instance" xsi:noNamespaceSchemaLocation="http://sumo.dlr.de/xsd/net_file.xsd">

    <location netOffset="0.00,0.00" convBoundary="-68.43,-48.23,56.38,83.12" origBoundary="-10000000000.00,-10000000000.00,10000000000.00,10000000000.00" projParameter="!"/>

    <edge id=":J11_0" function="internal">
        <lane id=":J11_0_0" index="0" speed="6.51" length="9.04" shape="-4.81,-41.01 -5.17,-43.46 -6.22,-45.21 -7.97,-46.26 -10.42,-46.61"/>
    </edge>
    <edge id=":J11_1" function="internal">
        <lane id=":J11_1_0" index="0" speed="8.00" length="14.20" shape="-4.81,-41.01 -4.27,-44.86 -2.62,-47.62 0.13,-49.27 3.98,-49.82"/>
    </edge>
    <edge id=":J11_2" function="internal">
        <lane id=":J11_2_0" index="0" speed="6.50" length="9.03" shape="3.98,-46.62 1.53,-46.27 -0.22,-45.22 -1.27,-43.47 -1.61,-41.02"/>
    </edge>
    <edge id=":J11_3" function="internal">
        <lane id=":J11_3_0" index="0" speed="13.89" length="14.40" shape="3.98,-46.62 -10.42,-46.61"/>
    </edge>
    <edge id=":J11_4" function="internal">
        <lane id=":J11_4_0" index="0" speed="13.89" length="14.41" shape="-10.43,-49.81 3.98,-49.82"/>
    </edge>
    <edge id=":J11_5" function="internal">
        <lane id=":J11_5_0" index="0" speed="8.01" length="4.07" shape="-10.43,-49.81 -6.58,-49.27 -6.42,-49.17"/>
    </edge>
    <edge id=":J11_6" function="internal">
        <lane id=":J11_6_0" index="0" speed="8.01" length="10.13" shape="-6.42,-49.17 -3.83,-47.62 -2.17,-44.87 -1.61,-41.02"/>
    </edge>
    <edge id=":J13_0" function="internal">
        <lane id=":J13_0_0" index="0" speed="6.51" length="9.04" shape="-4.66,62.67 -5.02,60.22 -6.07,58.47 -7.82,57.42 -10.27,57.07"/>
    </edge>
    <edge id=":J13_1" function="internal">
        <lane id=":J13_1_0" index="0" speed="13.89" length="14.41" shape="-4.66,62.67 -4.68,48.27"/>
    </edge>
    <edge id=":J13_2" function="internal">
        <lane id=":J13_2_0" index="0" speed="8.00" length="4.07" shape="-4.66,62.67 -4.12,58.82 -4.02,58.67"/>
    </edge>
    <edge id=":J13_12" function="internal">
        <lane id=":J13_12_0" index="0" speed="8.00" length="10.13" shape="-4.02,58.67 -2.47,56.07 0.28,54.42 4.13,53.86"/>
    </edge>
    <edge id=":J13_3" function="internal">
        <lane id=":J13_3_0" index="0" speed="6.51" length="9.03" shape="4.13,57.06 1.68,57.42 -0.07,58.47 -1.11,60.22 -1.46,62.67"/>
    </edge>
    <edge id=":J13_4" function="internal">
        <lane id=":J13_4_0" index="0" speed="13.89" length="14.41" shape="4.13,57.06 -10.27,57.07"/>
    </edge>
    <edge id=":J13_5" function="internal">
        <lane id=":J13_5_0" index="0" speed="8.00" length="4.07" shape="4.13,57.06 0.28,56.52 0.13,56.42"/>
    </edge>
    <edge id=":J13_13" function="internal">
        <lane id=":J13_13_0" index="0" speed="8.00" length="10.13" shape="0.13,56.42 -2.47,54.87 -4.12,52.12 -4.68,48.27"/>
    </edge>
    <edge id=":J13_6" function="internal">
        <lane id=":J13_6_0" index="0" speed="6.51" length="9.04" shape="-1.48,48.26 -1.12,50.72 -0.07,52.47 1.68,53.52 4.13,53.86"/>
    </edge>
    <edge id=":J13_7" function="internal">
        <lane id=":J13_7_0" index="0" speed="13.89" length="14.40" shape="-1.48,48.26 -1.46,62.67"/>
    </edge>
    <edge id=":J13_8" function="internal">
        <lane id=":J13_8_0" index="0" speed="8.00" length="4.07" shape="-1.48,48.26 -2.02,52.12 -2.11,52.27"/>
    </edge>
    <edge id=":J13_14" function="internal">
        <lane id=":J13_14_0" index="0" speed="8.00" length="10.13" shape="-2.11,52.27 -3.67,54.87 -6.42,56.52 -10.27,57.07"/>
    </edge>
    <edge id=":J13_9" function="internal">
        <lane id=":J13_9_0" index="0" speed="6.50" length="9.03" shape="-10.27,53.87 -7.82,53.52 -6.07,52.47 -5.02,50.72 -4.68,48.27"/>
    </edge>
    <edge id=":J13_10" function="internal">
        <lane id=":J13_10_0" index="0" speed="13.89" length="14.40" shape="-10.27,53.87 4.13,53.86"/>
    </edge>
    <edge id=":J13_11" function="internal">
        <lane id=":J13_11_0" index="0" speed="8.01" length="4.06" shape="-10.27,53.87 -6.42,54.42 -6.27,54.51"/>
    </edge>
    <edge id=":J13_15" function="internal">
        <lane id=":J13_15_0" index="0" speed="8.01" length="10.13" shape="-6.27,54.51 -3.67,56.07 -2.02,58.82 -1.46,62.67"/>
    </edge>
    <edge id=":J4_0" function="internal">
        <lane id=":J4_0_0" index="0" speed="6.08" length="7.75" shape="-65.23,57.04 -67.33,56.74 -68.83,55.84 -69.73,54.34 -70.03,52.24"/>
    </edge>
    <edge id=":J4_1" function="internal">
        <lane id=":J4_1_0" index="0" speed="3.90" length="2.58" shape="-66.83,52.24 -66.73,52.94 -66.43,53.44 -65.93,53.74 -65.23,53.84"/>
    </edge>
    <edge id=":J7_0" function="internal">
        <lane id=":J7_0_0" index="0" speed="6.52" length="9.06" shape="-4.70,10.40 -5.06,7.95 -6.11,6.19 -7.87,5.14 -10.33,4.78"/>
    </edge>
    <edge id=":J7_1" function="internal">
        <lane id=":J7_1_0" index="0" speed="13.89" length="14.41" shape="-4.70,10.40 -4.73,-4.01"/>
    </edge>
    <edge id=":J7_2" function="internal">
        <lane id=":J7_2_0" index="0" speed="8.00" length="4.06" shape="-4.70,10.40 -4.16,6.55 -4.07,6.41"/>
    </edge>
    <edge id=":J7_12" function="internal">
        <lane id=":J7_12_0" index="0" speed="8.00" length="10.13" shape="-4.07,6.41 -2.51,3.80 0.24,2.15 4.09,1.60"/>
    </edge>
    <edge id=":J7_3" function="internal">
        <lane id=":J7_3_0" index="0" speed="6.51" length="9.03" shape="4.09,4.80 1.64,5.15 -0.11,6.20 -1.16,7.95 -1.50,10.40"/>
    </edge>
    <edge id=":J7_4" function="internal">
        <lane id=":J7_4_0" index="0" speed="13.89" length="14.42" shape="4.09,4.80 -10.33,4.78"/>
    </edge>
    <edge id=":J7_5" function="internal">
        <lane id=":J7_5_0" index="0" speed="8.01" length="4.07" shape="4.09,4.80 0.24,4.25 0.08,4.15"/>
    </edge>
    <edge id=":J7_13" function="internal">
        <lane id=":J7_13_0" index="0" speed="8.01" length="10.13" shape="0.08,4.15 -2.51,2.60 -4.17,-0.16 -4.73,-4.01"/>
    </edge>
    <edge id=":J7_6" function="internal">
        <lane id=":J7_6_0" index="0" speed="6.52" length="9.06" shape="-1.53,-4.02 -1.17,-1.56 -0.12,0.20 1.64,1.25 4.09,1.60"/>
    </edge>
    <edge id=":J7_7" function="internal">
        <lane id=":J7_7_0" index="0" speed="13.89" length="14.42" shape="-1.53,-4.02 -1.50,10.40"/>
    </edge>
    <edge id=":J7_8" function="internal">
        <lane id=":J7_8_0" index="0" speed="7.99" length="4.08" shape="-1.53,-4.02 -2.07,-0.16 -2.16,-0.01"/>
    </edge>
    <edge id=":J7_14" function="internal">
        <lane id=":J7_14_0" index="0" speed="7.99" length="10.13" shape="-2.16,-0.01 -3.72,2.59 -6.47,4.24 -10.33,4.78"/>
    </edge>
    <edge id=":J7_9" function="internal">
        <lane id=":J7_9_0" index="0" speed="6.50" length="9.03" shape="-10.32,1.58 -7.87,1.24 -6.12,0.19 -5.07,-1.56 -4.73,-4.01"/>
    </edge>
    <edge id=":J7_10" function="internal">
        <lane id=":J7_10_0" index="0" speed="13.89" length="14.41" shape="-10.32,1.58 4.09,1.60"/>
    </edge>
    <edge id=":J7_11" function="internal">
        <lane id=":J7_11_0" index="0" speed="8.02" length="4.07" shape="-10.32,1.58 -6.47,2.14 -6.32,2.23"/>
    </edge>
    <edge id=":J7_15" function="internal">
        <lane id=":J7_15_0" index="0" speed="8.02" length="10.15" shape="-6.32,2.23 -3.71,3.80 -2.06,6.55 -1.50,10.40"/>
    </edge>
    <edge id=":J8_0" function="internal">
        <lane id=":J8_0_0" index="0" speed="3.90" length="2.58" shape="-65.17,4.66 -65.87,4.76 -66.37,5.06 -66.67,5.55 -66.77,6.26"/>
    </edge>
    <edge id=":J8_1" function="internal">
        <lane id=":J8_1_0" index="0" speed="6.08" length="7.75" shape="-69.97,6.25 -69.67,4.15 -68.77,2.65 -67.27,1.75 -65.16,1.46"/>
    </edge>
    <edge id=":J9_0" function="internal">
        <lane id=":J9_0_0" index="0" speed="6.51" length="9.03" shape="54.73,10.40 54.38,7.95 53.33,6.20 51.58,5.15 49.13,4.80"/>
    </edge>
    <edge id=":J9_1" function="internal">
        <lane id=":J9_1_0" index="0" speed="13.89" length="14.40" shape="54.73,10.40 54.74,-4.00"/>
    </edge>
    <edge id=":J9_2" function="internal">
        <lane id=":J9_2_0" index="0" speed="13.89" length="14.40" shape="57.93,-4.00 57.93,10.40"/>
    </edge>
    <edge id=":J9_3" function="internal">
        <lane id=":J9_3_0" index="0" speed="8.00" length="4.06" shape="57.93,-4.00 57.38,-0.15 57.29,-0.00"/>
    </edge>
    <edge id=":J9_6" function="internal">
        <lane id=":J9_6_0" index="0" speed="8.00" length="10.13" shape="57.29,-0.00 55.73,2.60 52.98,4.25 49.13,4.80"/>
    </edge>
    <edge id=":J9_4" function="internal">
        <lane id=":J9_4_0" index="0" speed="6.51" length="9.03" shape="49.13,1.60 51.58,1.25 53.33,0.20 54.38,-1.55 54.74,-4.00"/>
    </edge>
    <edge id=":J9_5" function="internal">
        <lane id=":J9_5_0" index="0" speed="8.00" length="14.19" shape="49.13,1.60 52.98,2.15 55.73,3.80 57.38,6.55 57.93,10.40"/>
    </edge>

    <edge id="-E0" from="J0" to="J13" priority="-1">
        <lane id="-E0_0" index="0" speed="13.89" length="20.45" shape="-4.64,83.12 -4.66,62.67"/>
    </edge>
    <edge id="-E10" from="J12" to="J11" priority="-1">
        <lane id="-E10_0" index="0" speed="13.89" length="57.58" shape="-68.01,-49.74 -10.43,-49.81"/>
    </edge>
    <edge id="-E11" from="J13" to="J4" priority="-1">
        <lane id="-E11_0" index="0" speed="13.89" length="54.95" shape="-10.27,57.07 -65.23,57.04"/>
    </edge>
    <edge id="-E12" from="J6" to="J13" priority="-1">
        <lane id="-E12_0" index="0" speed="13.89" length="33.46" shape="37.59,57.04 4.13,57.06"/>
    </edge>
    <edge id="-E13" from="J7" to="J13" priority="-1">
        <lane id="-E13_0" index="0" speed="13.89" length="37.86" shape="-1.50,10.40 -1.48,48.26"/>
    </edge>
    <edge id="-E4" from="J8" to="J7" priority="-1">
        <lane id="-E4_0" index="0" speed="13.89" length="54.84" shape="-65.16,1.46 -10.32,1.58"/>
    </edge>
    <edge id="-E5" from="J4" to="J8" priority="-1">
        <lane id="-E5_0" index="0" speed="13.89" length="45.98" shape="-70.03,52.24 -69.97,6.25"/>
    </edge>
    <edge id="-E6" from="J9" to="J7" priority="-1">
        <lane id="-E6_0" index="0" speed="13.89" length="45.04" shape="49.13,4.80 4.09,4.80"/>
    </edge>
    <edge id="-E7" from="J10" to="J9" priority="-1">
        <lane id="-E7_0" index="0" speed="13.89" length="25.27" shape="54.73,35.67 54.73,10.40"/>
    </edge>
    <edge id="-E8" from="J11" to="J7" priority="-1">
        <lane id="-E8_0" index="0" speed="13.89" length="37.00" shape="-1.61,-41.02 -1.53,-4.02"/>
    </edge>
    <edge id="-E9" from="J9" to="J11" priority="-1" shape="56.33,3.20 56.38,-48.23 -3.23,-48.22">
        <lane id="-E9_0" index="0" speed="13.89" length="93.43" shape="54.74,-4.00 54.78,-46.63 3.98,-46.62"/>
    </edge>
    <edge id="E0" from="J13" to="J0" priority="-1">
        <lane id="E0_0" index="0" speed="13.89" length="20.45" shape="-1.46,62.67 -1.44,83.12"/>
    </edge>
    <edge id="E10" from="J11" to="J12" priority="-1">
        <lane id="E10_0" index="0" speed="13.89" length="57.58" shape="-10.42,-46.61 -68.01,-46.54"/>
    </edge>
    <edge id="E11" from="J4" to="J13" priority="-1">
        <lane id="E11_0" index="0" speed="13.89" length="54.95" shape="-65.23,53.84 -10.27,53.87"/>
    </edge>
    <edge id="E12" from="J13" to="J6" priority="-1">
        <lane id="E12_0" index="0" speed="13.89" length="33.46" shape="4.13,53.86 37.59,53.84"/>
    </edge>
    <edge id="E13" from="J13" to="J7" priority="-1">
        <lane id="E13_0" index="0" speed="13.89" length="37.86" shape="-4.68,48.27 -4.70,10.40"/>
    </edge>
    <edge id="E4" from="J7" to="J8" priority="-1">
        <lane id="E4_0" index="0" speed="13.89" length="54.84" shape="-10.33,4.78 -65.17,4.66"/>
    </edge>
    <edge id="E5" from="J8" to="J4" priority="-1">
        <lane id="E5_0" index="0" speed="13.89" length="45.98" shape="-66.77,6.26 -66.83,52.24"/>
    </edge>
    <edge id="E6" from="J7" to="J9" priority="-1">
        <lane id="E6_0" index="0" speed="13.89" length="45.04" shape="4.09,1.60 49.13,1.60"/>
    </edge>
    <edge id="E7" from="J9" to="J10" priority="-1">
        <lane id="E7_0" index="0" speed="13.89" length="25.27" shape="57.93,10.40 57.93,35.67"/>
    </edge>
    <edge id="E8" from="J7" to="J11" priority="-1">
        <lane id="E8_0" index="0" speed="13.89" length="37.00" shape="-4.73,-4.01 -4.81,-41.01"/>
    </edge>
    <edge id="E9" from="J11" to="J9" priority="-1" shape="-3.23,-48.22 56.34,-48.18 56.33,3.20">
        <lane id="E9_0" index="0" speed="13.89" length="99.74" shape="3.98,-49.82 57.94,-49.78 57.93,-4.00"/>
    </edge>

    <tlLogic id="J11" type="static" programID="0" offset="0">
        <phase duration="42" state="rrGGGg"/>
        <phase duration="3"  state="rrGyyy"/>
        <phase duration="42" state="GGGrrr"/>
        <phase duration="3"  state="yyGrrr"/>
    </tlLogic>
    <tlLogic id="J13" type="static" programID="0" offset="0">
        <phase duration="42" state="GGgrrrGGgrrr"/>
        <phase duration="3"  state="yyyrrryyyrrr"/>
        <phase duration="42" state="rrrGGgrrrGGg"/>
        <phase duration="3"  state="rrryyyrrryyy"/>
    </tlLogic>
    <tlLogic id="J7" type="static" programID="0" offset="0">
        <phase duration="42" state="GGgrrrGGgrrr"/>
        <phase duration="3"  state="yyyrrryyyrrr"/>
        <phase duration="42" state="rrrGGgrrrGGg"/>
        <phase duration="3"  state="rrryyyrrryyy"/>
    </tlLogic>
    <tlLogic id="J9" type="static" programID="0" offset="0">
        <phase duration="42" state="GGGgrr"/>
        <phase duration="3"  state="Gyyyrr"/>
        <phase duration="42" state="GrrrGG"/>
        <phase duration="3"  state="Grrryy"/>
    </tlLogic>

    <junction id="J0" type="dead_end" x="-3.04" y="83.12" incLanes="E0_0" intLanes="" shape="-3.04,83.12 0.16,83.12 -3.04,83.12"/>
    <junction id="J10" type="dead_end" x="56.33" y="35.67" incLanes="E7_0" intLanes="" shape="56.33,35.67 59.53,35.67 56.33,35.67"/>
    <junction id="J11" type="traffic_light" x="-3.23" y="-48.22" incLanes="E8_0 -E9_0 -E10_0" intLanes=":J11_0_0 :J11_1_0 :J11_2_0 :J11_3_0 :J11_4_0 :J11_6_0" shape="-6.41,-41.01 -0.01,-41.02 0.43,-43.24 0.98,-44.02 1.76,-44.58 2.76,-44.91 3.98,-45.02 3.98,-51.42 -10.43,-51.41 -10.42,-45.01 -8.20,-44.57 -7.42,-44.01 -6.86,-43.23 -6.53,-42.23">
        <request index="0" response="001000" foes="001000" cont="0"/>
        <request index="1" response="111000" foes="111000" cont="0"/>
        <request index="2" response="000000" foes="100000" cont="0"/>
        <request index="3" response="000000" foes="100011" cont="0"/>
        <request index="4" response="000000" foes="000010" cont="0"/>
        <request index="5" response="001100" foes="001110" cont="1"/>
    </junction>
    <junction id="J12" type="dead_end" x="-68.01" y="-48.14" incLanes="E10_0" intLanes="" shape="-68.01,-48.14 -68.01,-44.94 -68.01,-48.14"/>
    <junction id="J13" type="traffic_light" x="-3.07" y="55.47" incLanes="-E0_0 -E12_0 -E13_0 E11_0" intLanes=":J13_0_0 :J13_1_0 :J13_12_0 :J13_3_0 :J13_4_0 :J13_13_0 :J13_6_0 :J13_7_0 :J13_14_0 :J13_9_0 :J13_10_0 :J13_15_0" shape="-6.26,62.67 0.14,62.67 0.58,60.45 1.13,59.67 1.91,59.11 2.91,58.78 4.13,58.66 4.13,52.26 1.91,51.82 1.13,51.27 0.57,50.49 0.24,49.49 0.12,48.26 -6.28,48.27 -6.72,50.49 -7.27,51.27 -8.05,51.82 -9.05,52.16 -10.27,52.27 -10.28,58.67 -8.05,59.11 -7.27,59.67 -6.71,60.45 -6.37,61.45">
        <request index="0"  response="000000000000" foes="000100010000" cont="0"/>
        <request index="1"  response="100000100000" foes="111100110000" cont="0"/>
        <request index="2"  response="100111100000" foes="110111110000" cont="1"/>
        <request index="3"  response="000010000000" foes="100010000000" cont="0"/>
        <request index="4"  response="000110000111" foes="100110000111" cont="0"/>
        <request index="5"  response="111110000110" foes="111110000110" cont="1"/>
        <request index="6"  response="000000000000" foes="010000000100" cont="0"/>
        <request index="7"  response="100000100000" foes="110000111100" cont="0"/>
        <request index="8"  response="100000100011" foes="110000110111" cont="1"/>
        <request index="9"  response="000000000010" foes="000000100010" cont="0"/>
        <request index="10" response="000111000110" foes="000111100110" cont="0"/>
        <request index="11" response="000110011110" foes="000110111110" cont="1"/>
    </junction>
    <junction id="J4" type="priority" x="-68.43" y="55.44" incLanes="-E11_0 E5_0" intLanes=":J4_0_0 :J4_1_0" shape="-65.23,58.64 -65.23,52.24 -71.63,52.23 -70.92,55.79 -70.03,57.04 -68.79,57.93 -67.19,58.46">
        <request index="0" response="00" foes="00" cont="0"/>
        <request index="1" response="00" foes="00" cont="0"/>
    </junction>
    <junction id="J6" type="dead_end" x="37.59" y="55.44" incLanes="E12_0" intLanes="" shape="37.59,55.44 37.59,52.24 37.59,55.44"/>
    <junction id="J7" type="traffic_light" x="-3.11" y="3.20" incLanes="E13_0 -E6_0 -E8_0 -E4_0" intLanes=":J7_0_0 :J7_1_0 :J7_12_0 :J7_3_0 :J7_4_0 :J7_13_0 :J7_6_0 :J7_7_0 :J7_14_0 :J7_9_0 :J7_10_0 :J7_15_0" shape="-6.30,10.40 0.10,10.40 0.54,8.18 1.09,7.40 1.87,6.84 2.87,6.51 4.09,6.40 4.09,-0.00 1.86,-0.45 1.08,-1.01 0.52,-1.79 0.19,-2.79 0.07,-4.02 -6.33,-4.01 -6.77,-1.79 -7.32,-1.01 -8.10,-0.46 -9.10,-0.12 -10.32,-0.02 -10.33,6.38 -8.10,6.83 -7.31,7.39 -6.75,8.17 -6.42,9.18">
        <request index="0"  response="000000000000" foes="000100010000" cont="0"/>
        <request index="1"  response="100000100000" foes="111100110000" cont="0"/>
        <request index="2"  response="100011100000" foes="110111110000" cont="1"/>
        <request index="3"  response="000010000000" foes="100010000000" cont="0"/>
        <request index="4"  response="000110000111" foes="100110000111" cont="0"/>
        <request index="5"  response="011110000110" foes="111110000110" cont="1"/>
        <request index="6"  response="000000000000" foes="010000000100" cont="0"/>
        <request index="7"  response="100000100000" foes="110000111100" cont="0"/>
        <request index="8"  response="100000100111" foes="110000110111" cont="1"/>
        <request index="9"  response="000000000010" foes="000000100010" cont="0"/>
        <request index="10" response="000111000110" foes="000111100110" cont="0"/>
        <request index="11" response="000110111110" foes="000110111110" cont="1"/>
    </junction>
    <junction id="J8" type="priority" x="-68.37" y="3.05" incLanes="E4_0 -E5_0" intLanes=":J8_0_0 :J8_1_0" shape="-65.17,6.26 -65.16,-0.14 -68.72,0.56 -69.97,1.45 -70.86,2.69 -71.39,4.29 -71.57,6.25">
        <request index="0" response="00" foes="00" cont="0"/>
        <request index="1" response="00" foes="00" cont="0"/>
    </junction>
    <junction id="J9" type="traffic_light" x="56.33" y="3.20" incLanes="-E7_0 E9_0 E6_0" intLanes=":J9_0_0 :J9_1_0 :J9_2_0 :J9_6_0 :J9_4_0 :J9_5_0" shape="53.13,10.40 59.53,10.40 59.53,-3.99 53.14,-4.00 52.69,-1.78 52.13,-1.00 51.35,-0.44 50.35,-0.11 49.13,-0.00 49.13,6.40 51.35,6.84 52.13,7.40 52.69,8.18 53.02,9.18">
        <request index="0" response="000000" foes="001000" cont="0"/>
        <request index="1" response="000000" foes="111000" cont="0"/>
        <request index="2" response="000000" foes="100000" cont="0"/>
        <request index="3" response="000011" foes="100011" cont="1"/>
        <request index="4" response="000010" foes="000010" cont="0"/>
        <request index="5" response="001110" foes="001110" cont="0"/>
    </junction>

    <junction id=":J11_6_0" type="internal" x="-6.42" y="-49.17" incLanes=":J11_5_0 -E9_0" intLanes=":J11_1_0 :J11_2_0 :J11_3_0"/>
    <junction id=":J13_12_0" type="internal" x="-4.02" y="58.67" incLanes=":J13_2_0 -E13_0" intLanes=":J13_4_0 :J13_5_0 :J13_6_0 :J13_7_0 :J13_10_0 :J13_11_0"/>
    <junction id=":J13_13_0" type="internal" x="0.13" y="56.42" incLanes=":J13_5_0 E11_0" intLanes=":J13_1_0 :J13_2_0 :J13_7_0 :J13_8_0 :J13_9_0 :J13_10_0"/>
    <junction id=":J13_14_0" type="internal" x="-2.11" y="52.27" incLanes=":J13_8_0 -E0_0" intLanes=":J13_0_0 :J13_1_0 :J13_4_0 :J13_5_0 :J13_10_0 :J13_11_0"/>
    <junction id=":J13_15_0" type="internal" x="-6.27" y="54.51" incLanes=":J13_11_0 -E12_0" intLanes=":J13_1_0 :J13_2_0 :J13_3_0 :J13_4_0 :J13_7_0 :J13_8_0"/>
    <junction id=":J7_12_0" type="internal" x="-4.07" y="6.41" incLanes=":J7_2_0 -E8_0" intLanes=":J7_4_0 :J7_5_0 :J7_6_0 :J7_7_0 :J7_10_0 :J7_11_0"/>
    <junction id=":J7_13_0" type="internal" x="0.08" y="4.15" incLanes=":J7_5_0 -E4_0" intLanes=":J7_1_0 :J7_2_0 :J7_7_0 :J7_8_0 :J7_9_0 :J7_10_0"/>
    <junction id=":J7_14_0" type="internal" x="-2.16" y="-0.01" incLanes=":J7_8_0 E13_0" intLanes=":J7_0_0 :J7_1_0 :J7_4_0 :J7_5_0 :J7_10_0 :J7_11_0"/>
    <junction id=":J7_15_0" type="internal" x="-6.32" y="2.23" incLanes=":J7_11_0 -E6_0" intLanes=":J7_1_0 :J7_2_0 :J7_3_0 :J7_4_0 :J7_7_0 :J7_8_0"/>
    <junction id=":J9_6_0" type="internal" x="57.29" y="-0.00" incLanes=":J9_3_0 -E7_0" intLanes=":J9_0_0 :J9_1_0 :J9_5_0"/>

    <connection from="-E0" to="-E11" fromLane="0" toLane="0" via=":J13_0_0" tl="J13" linkIndex="9" dir="r" state="O"/>
    <connection from="-E0" to="E13" fromLane="0" toLane="0" via=":J13_1_0" tl="J13" linkIndex="10" dir="s" state="O"/>
    <connection from="-E0" to="E12" fromLane="0" toLane="0" via=":J13_2_0" tl="J13" linkIndex="11" dir="l" state="o"/>
    <connection from="-E10" to="E9" fromLane="0" toLane="0" via=":J11_4_0" tl="J11" linkIndex="4" dir="s" state="O"/>
    <connection from="-E10" to="-E8" fromLane="0" toLane="0" via=":J11_5_0" tl="J11" linkIndex="5" dir="l" state="o"/>
    <connection from="-E11" to="-E5" fromLane="0" toLane="0" via=":J4_0_0" dir="l" state="M"/>
    <connection from="-E12" to="E0" fromLane="0" toLane="0" via=":J13_3_0" tl="J13" linkIndex="0" dir="r" state="o"/>
    <connection from="-E12" to="-E11" fromLane="0" toLane="0" via=":J13_4_0" tl="J13" linkIndex="1" dir="s" state="o"/>
    <connection from="-E12" to="E13" fromLane="0" toLane="0" via=":J13_5_0" tl="J13" linkIndex="2" dir="l" state="o"/>
    <connection from="-E13" to="E12" fromLane="0" toLane="0" via=":J13_6_0" tl="J13" linkIndex="3" dir="r" state="O"/>
    <connection from="-E13" to="E0" fromLane="0" toLane="0" via=":J13_7_0" tl="J13" linkIndex="4" dir="s" state="O"/>
    <connection from="-E13" to="-E11" fromLane="0" toLane="0" via=":J13_8_0" tl="J13" linkIndex="5" dir="l" state="o"/>
    <connection from="-E4" to="E8" fromLane="0" toLane="0" via=":J7_9_0" tl="J7" linkIndex="6" dir="r" state="o"/>
    <connection from="-E4" to="E6" fromLane="0" toLane="0" via=":J7_10_0" tl="J7" linkIndex="7" dir="s" state="o"/>
    <connection from="-E4" to="-E13" fromLane="0" toLane="0" via=":J7_11_0" tl="J7" linkIndex="8" dir="l" state="o"/>
    <connection from="-E5" to="-E4" fromLane="0" toLane="0" via=":J8_1_0" dir="l" state="M"/>
    <connection from="-E6" to="-E13" fromLane="0" toLane="0" via=":J7_3_0" tl="J7" linkIndex="0" dir="r" state="o"/>
    <connection from="-E6" to="E4" fromLane="0" toLane="0" via=":J7_4_0" tl="J7" linkIndex="1" dir="s" state="o"/>
    <connection from="-E6" to="E8" fromLane="0" toLane="0" via=":J7_5_0" tl="J7" linkIndex="2" dir="l" state="o"/>
    <connection from="-E7" to="-E6" fromLane="0" toLane="0" via=":J9_0_0" tl="J9" linkIndex="0" dir="r" state="O"/>
    <connection from="-E7" to="-E9" fromLane="0" toLane="0" via=":J9_1_0" tl="J9" linkIndex="1" dir="s" state="O"/>
    <connection from="-E8" to="E6" fromLane="0" toLane="0" via=":J7_6_0" tl="J7" linkIndex="3" dir="r" state="O"/>
    <connection from="-E8" to="-E13" fromLane="0" toLane="0" via=":J7_7_0" tl="J7" linkIndex="4" dir="s" state="O"/>
    <connection from="-E8" to="E4" fromLane="0" toLane="0" via=":J7_8_0" tl="J7" linkIndex="5" dir="l" state="o"/>
    <connection from="-E9" to="-E8" fromLane="0" toLane="0" via=":J11_2_0" tl="J11" linkIndex="2" dir="r" state="O"/>
    <connection from="-E9" to="E10" fromLane="0" toLane="0" via=":J11_3_0" tl="J11" linkIndex="3" dir="s" state="O"/>
    <connection from="E11" to="E13" fromLane="0" toLane="0" via=":J13_9_0" tl="J13" linkIndex="6" dir="r" state="o"/>
    <connection from="E11" to="E12" fromLane="0" toLane="0" via=":J13_10_0" tl="J13" linkIndex="7" dir="s" state="o"/>
    <connection from="E11" to="E0" fromLane="0" toLane="0" via=":J13_11_0" tl="J13" linkIndex="8" dir="l" state="o"/>
    <connection from="E13" to="E4" fromLane="0" toLane="0" via=":J7_0_0" tl="J7" linkIndex="9" dir="r" state="O"/>
    <connection from="E13" to="E8" fromLane="0" toLane="0" via=":J7_1_0" tl="J7" linkIndex="10" dir="s" state="O"/>
    <connection from="E13" to="E6" fromLane="0" toLane="0" via=":J7_2_0" tl="J7" linkIndex="11" dir="l" state="o"/>
    <connection from="E4" to="E5" fromLane="0" toLane="0" via=":J8_0_0" dir="r" state="M"/>
    <connection from="E5" to="E11" fromLane="0" toLane="0" via=":J4_1_0" dir="r" state="M"/>
    <connection from="E6" to="-E9" fromLane="0" toLane="0" via=":J9_4_0" tl="J9" linkIndex="4" dir="r" state="o"/>
    <connection from="E6" to="E7" fromLane="0" toLane="0" via=":J9_5_0" tl="J9" linkIndex="5" dir="l" state="o"/>
    <connection from="E8" to="E10" fromLane="0" toLane="0" via=":J11_0_0" tl="J11" linkIndex="0" dir="r" state="o"/>
    <connection from="E8" to="E9" fromLane="0" toLane="0" via=":J11_1_0" tl="J11" linkIndex="1" dir="l" state="o"/>
    <connection from="E9" to="E7" fromLane="0" toLane="0" via=":J9_2_0" tl="J9" linkIndex="2" dir="s" state="O"/>
    <connection from="E9" to="-E6" fromLane="0" toLane="0" via=":J9_3_0" tl="J9" linkIndex="3" dir="l" state="o"/>

    <connection from=":J11_0" to="E10" fromLane="0" toLane="0" dir="r" state="M"/>
    <connection from=":J11_1" to="E9" fromLane="0" toLane="0" dir="l" state="M"/>
    <connection from=":J11_2" to="-E8" fromLane="0" toLane="0" dir="r" state="M"/>
    <connection from=":J11_3" to="E10" fromLane="0" toLane="0" dir="s" state="M"/>
    <connection from=":J11_4" to="E9" fromLane="0" toLane="0" dir="s" state="M"/>
    <connection from=":J11_5" to="-E8" fromLane="0" toLane="0" via=":J11_6_0" dir="l" state="m"/>
    <connection from=":J11_6" to="-E8" fromLane="0" toLane="0" dir="l" state="M"/>
    <connection from=":J13_0" to="-E11" fromLane="0" toLane="0" dir="r" state="M"/>
    <connection from=":J13_1" to="E13" fromLane="0" toLane="0" dir="s" state="M"/>
    <connection from=":J13_2" to="E12" fromLane="0" toLane="0" via=":J13_12_0" dir="l" state="m"/>
    <connection from=":J13_12" to="E12" fromLane="0" toLane="0" dir="l" state="M"/>
    <connection from=":J13_3" to="E0" fromLane="0" toLane="0" dir="r" state="M"/>
    <connection from=":J13_4" to="-E11" fromLane="0" toLane="0" dir="s" state="M"/>
    <connection from=":J13_5" to="E13" fromLane="0" toLane="0" via=":J13_13_0" dir="l" state="m"/>
    <connection from=":J13_13" to="E13" fromLane="0" toLane="0" dir="l" state="M"/>
    <connection from=":J13_6" to="E12" fromLane="0" toLane="0" dir="r" state="M"/>
    <connection from=":J13_7" to="E0" fromLane="0" toLane="0" dir="s" state="M"/>
    <connection from=":J13_8" to="-E11" fromLane="0" toLane="0" via=":J13_14_0" dir="l" state="m"/>
    <connection from=":J13_14" to="-E11" fromLane="0" toLane="0" dir="l" state="M"/>
    <connection from=":J13_9" to="E13" fromLane="0" toLane="0" dir="r" state="M"/>
    <connection from=":J13_10" to="E12" fromLane="0" toLane="0" dir="s" state="M"/>
    <connection from=":J13_11" to="E0" fromLane="0" toLane="0" via=":J13_15_0" dir="l" state="m"/>
    <connection from=":J13_15" to="E0" fromLane="0" toLane="0" dir="l" state="M"/>
    <connection from=":J4_0" to="-E5" fromLane="0" toLane="0" dir="l" state="M"/>
    <connection from=":J4_1" to="E11" fromLane="0" toLane="0" dir="r" state="M"/>
    <connection from=":J7_0" to="E4" fromLane="0" toLane="0" dir="r" state="M"/>
    <connection from=":J7_1" to="E8" fromLane="0" toLane="0" dir="s" state="M"/>
    <connection from=":J7_2" to="E6" fromLane="0" toLane="0" via=":J7_12_0" dir="l" state="m"/>
    <connection from=":J7_12" to="E6" fromLane="0" toLane="0" dir="l" state="M"/>
    <connection from=":J7_3" to="-E13" fromLane="0" toLane="0" dir="r" state="M"/>
    <connection from=":J7_4" to="E4" fromLane="0" toLane="0" dir="s" state="M"/>
    <connection from=":J7_5" to="E8" fromLane="0" toLane="0" via=":J7_13_0" dir="l" state="m"/>
    <connection from=":J7_13" to="E8" fromLane="0" toLane="0" dir="l" state="M"/>
    <connection from=":J7_6" to="E6" fromLane="0" toLane="0" dir="r" state="M"/>
    <connection from=":J7_7" to="-E13" fromLane="0" toLane="0" dir="s" state="M"/>
    <connection from=":J7_8" to="E4" fromLane="0" toLane="0" via=":J7_14_0" dir="l" state="m"/>